/*---------------------------------------------------------------------------*\               
| =========                 |                                                 |                
| \\      /  F ield         | OpenFOAM: The Open Source CFD Toolbox           |                
|  \\    /   O peration     | Version:  1.0                                   |                
|   \\  /    A nd           | Web:      http://www.openfoam.org               |                
|    \\/     M anipulation  |                                                 |                
\*---------------------------------------------------------------------------*/                
                                        
FoamFile                                
{                                       
    version         2.0;                
    format          ascii;              
                                        
    root            "";               
    case            "";               
    instance        "";               
    local           "";               
                                        
    class           dictionary;         
    object          blockMeshDict;      
}          


convertToMeters 0.01;  

                                         
vertices                                
(                                       
   (0.000000000000e+00 		0.000000000000e+00  		0.000000000000e+00	)   // 0
   (0.44957169971 	0.01962872431      	0.000000000000e+00	)   // 1
   (0.44957169971 	0.01962872431      	15			)   // 2

   (0.000000000000e+00 		0.000000000000e+00 		15)   // 3
   (0.44957169971 	-0.01962872431    	0)   	// 4
   (0.44957169971 	-0.01962872431    	15)   // 5

   (0.000000000000e+00 		0.000000000000e+00 		-0.8)   // 6
   (0.44957169971 	0.01962872431     	-0.8)   // 7
   (0.44957169971 	-0.01962872431    	-0.8)   // 8

   (0.52949555744  	0.0231182753     0.000000000000e+00)   // 9
   (0.52949555744  	-0.0231182753    0.000000000000e+00)   // 10
   (0.52949555744  	0.0231182753     15)   // 11
   (0.52949555744  	-0.0231182753    15)   // 12

   (2.74738260935011 	0.11995331525467     	0.000000000000e+00)   // 13
   (2.74738260935011 	-0.11995331525467    	0.000000000000e+00)   // 14
   (2.74738260935011 	0.11995331525467     	15)   // 15
   (2.74738260935011 	-0.11995331525467     	15)   // 16

   (0.52949555744  0.0231182753     	-0.8)   // 17
   (2.74738260935011 	0.11995331525467      		-0.8)   // 18
   (2.74738260935011 	-0.11995331525467    		-0.8)   // 19
   (0.52949555744  -0.0231182753    	-0.8)   // 20

   (2.99714466474557  0.13085816209601      0.000000000000e+00)   // 21
   (2.99714466474557  -0.13085816209601      0.000000000000e+00)   // 22
   (2.99714466474557  0.13085816209601       15)   // 23
   (2.99714466474557  -0.13085816209601      15)   // 24
);

blocks
( 	
	// Fuel
	hex (6 8 7 6 0 4 1 0)         (6  1 4  )  simpleGrading  (1.  1. 0.2	)
	hex (0 4 1 0 3 5 2 3)         (6  1 36 )  simpleGrading  (1.  1. 30.	)
	
	// Wall
	hex (4 10 9 1 5 12 11 2)      (1  1 36 )  simpleGrading   (1.  1.  30.	)
	
	// Coflow
	hex (20 19 18 17 10 14 13 9)  (20 1 4  )  simpleGrading   (10. 1. 0.2	)
	hex (10 14 13 9 12 16 15 11)  (20 1 36 )  simpleGrading   (10. 1. 30.	)

	// External wall
	hex (14 22 21 13 16 24 23 15) (1  1 36 )  simpleGrading   (1.  1. 30.	)
);
                                     
edges                                
(                                    
);                                         
                             
patches                              
(                                    
    patch inletfuel                  
    (                                
        (6 8 7 6)                    
    )                                
                                     
    patch inletair                   
    (                                
        (19 20 17 18)                
    )                                
                                     
    patch outlet                     
    (                                
        (5 3 3 2)                    
        (12 11 2 5)                  
        (16 15 11 12)   
        (15 16 24 23)                
    )                                
                                     
    empty axis                       
    (                                
        (3 0 0 3)                    
        (0 6 6 0)                    
    )                                
                                     
    wall leftside                    
    (                                
        (14 13 21 22)                
        (19 18 13 14)
        (23 24 22 21)                                
    )                                
                                     
    wall burnerwall                  
    (                                
        (8 7 1 4)                    
        (10 9 17 20)                 
        (4 1 9 10)                   
    )                                
                                     
    wedge front                      
    (                                
        (1 0 3 2)                    
        (7 6 0 1)                    
        (9 1 2 11)                   
        (13 9 11 15)                 
        (18 17 9 13)   
        (15 23 21 13)                 
    )                                
                                     
    wedge back                       
    (                                
	(5 3 0 4)                    
        (4 0 6 8)                    
        (12 5 4 10)                  
        (16 12 10 14)                
        (19 14 10 20) 
        (16 14 22 24)                  
    )                                
                                     
);                                   
                                     
mergePatchPairs                      
(                                    
);                                   
                                                                  
                      

                             
          
	

        
                           
                                        

