/*--------------------------------*- C++ -*----------------------------------*\
| =========                 |                                                 |
| \\      /  F ield         | OpenFOAM: The Open Source CFD Toolbox           |
|  \\    /   O peration     | Version:  2.3.x                                 |
|   \\  /    A nd           | Web:      www.OpenFOAM.org                      |
|    \\/     M anipulation  |                                                 |
\*---------------------------------------------------------------------------*/
FoamFile
{
    version     2.0;
    format      ascii;
    class       polyBoundaryMesh;
    location    "constant/polyMesh";
    object      boundary;
}
// * * * * * * * * * * * * * * * * * * * * * * * * * * * * * * * * * * * * * //

8
(
    inletfuel
    {
        type            patch;
        nFaces          6;
        startFace       2152;
    }
    inletair
    {
        type            patch;
        nFaces          20;
        startFace       2158;
    }
    outlet
    {
        type            patch;
        nFaces          28;
        startFace       2178;
    }
    axis
    {
        type            empty;
        inGroups        1(empty);
        nFaces          0;
        startFace       2206;
    }
    leftside
    {
        type            wall;
        inGroups        1(wall);
        nFaces          41;
        startFace       2206;
    }
    burnerwall
    {
        type            wall;
        inGroups        1(wall);
        nFaces          9;
        startFace       2247;
    }
    front
    {
        type            wedge;
        inGroups        1(wedge);
        nFaces          1112;
        startFace       2256;
    }
    back
    {
        type            wedge;
        inGroups        1(wedge);
        nFaces          1112;
        startFace       3368;
    }
)

// ************************************************************************* //
